12

O         -1.68759        3.05316       -0.17419
H         -0.71372        2.89639       -0.07607
H         -1.67658        3.96109       -0.52027
O          0.93964        2.37645       -0.14581
H          1.90589        2.37650       -0.04447
H          0.77435        1.40338       -0.23950
O         -2.40475        0.44057       -0.26690
H         -2.23933        1.41410       -0.17881
H         -3.36988        0.44119       -0.37853
O          0.22596       -0.23587       -0.30382
H          0.23560       -1.19737       -0.16442
H         -0.75194       -0.07570       -0.33170
